[General]
network = progettovuoto.Network
record-eventlog = true
repeat = 4
sim-time-limit = 1000s
warmup-period = 100s
**.source.interArrivalTime = exponential(10s)
**.queue2.serviceTime = uniform(1s, 5s)
**.queue1.serviceTime = exponential(2s)
**.router.randomGateIndex = uniform(0,1)>0.3?0:1  # In questo modo, io posso definrie un'implementazione per due uscite
